@<TRIPOS>MOLECULE
CHL
  136   144     1     0     1 
SMALL
USER_CHARGES
@<TRIPOS>ATOM
  1 MG     29.551000    8.171000   27.947000 M     1 CHL     0.8255 ****
  2 CHA    27.487000   10.917000   27.786000 C     1 CHL    -0.0809 ****
  3 CHB    26.842000    6.236000   28.581000 C     1 CHL    -0.2355 ****
  4 CHC    31.561000    5.453000   28.098000 C     1 CHL    -0.1588 ****
  5 CHD    32.284000   10.228000   27.428000 C     1 CHL    -0.1297 ****
  6 NA     27.462000    8.540000   28.106000 N     1 CHL    -0.1340 ****
  7 C1A    26.818000    9.762000   27.963000 C     1 CHL    -0.0133 ****
  8 C2A    25.312000    9.572000   28.006000 C     1 CHL     0.0645 ****
  9 C3A    25.189000    8.159000   28.611000 C     1 CHL     0.0907 ****
 10 C4A    26.585000    7.593000   28.412000 C     1 CHL    -0.0219 ****
 11 CMA    24.804000    8.172000   30.097000 C     1 CHL    -0.1225 ****
 12 CAA    24.693000    9.687000   26.601000 C     1 CHL    -0.1108 ****
 13 CBA    23.168000    9.735000   26.645000 C     1 CHL    -0.1726 ****
 14 CGA    22.545000    9.809000   25.272000 C     1 CHL     0.7525 ****
 15 O1A    23.151000    9.818000   24.248000 O     1 CHL    -0.5607 ****
 16 O2A    21.226000    9.865000   25.350000 O     1 CHL    -0.3722 ****
 17 NB     29.247000    6.198000   28.233000 N     1 CHL    -0.2128 ****
 18 C1B    28.085000    5.604000   28.483000 C     1 CHL     0.0028 ****
 19 C2B    28.288000    4.153000   28.652000 C     1 CHL     0.0737 ****
 20 C3B    29.598000    3.923000   28.478000 C     1 CHL     0.0180 ****
 21 C4B    30.241000    5.232000   28.235000 C     1 CHL     0.0203 ****
 22 CMB    27.190000    3.171000   28.926000 C     1 CHL    -0.1456 ****
 23 CAB    30.277000    2.613000   28.533000 C     1 CHL    -0.1262 ****
 24 CBB    31.139000    2.162000   27.639000 C     1 CHL    -0.3319 ****
 25 NC     31.602000    7.882000   27.784000 N     1 CHL    -0.1595 ****
 26 C1C    32.231000    6.724000   27.880000 C     1 CHL    -0.0651 ****
 27 C2C    33.641000    6.909000   27.740000 C     1 CHL    -0.0014 ****
 28 C3C    33.843000    8.272000   27.541000 C     1 CHL    -0.0398 ****
 29 C4C    32.561000    8.860000   27.575000 C     1 CHL    -0.0332 ****
 30 CMC    34.659000    5.866000   27.782000 C     1 CHL     0.3529 ****
 31 OMC    35.841000    6.047000   27.715000 O     1 CHL    -0.4875 ****
 32 CAC    35.159000    8.978000   27.352000 C     1 CHL     0.0566 ****
 33 CBC    35.859000    9.289000   28.681000 C     1 CHL    -0.0564 ****
 34 ND     29.877000   10.137000   27.698000 N     1 CHL    -0.1801 ****
 35 C1D    31.054000   10.849000   27.475000 C     1 CHL    -0.0288 ****
 36 C2D    30.752000   12.241000   27.303000 C     1 CHL     0.0651 ****
 37 C3D    29.381000   12.320000   27.429000 C     1 CHL    -0.0355 ****
 38 C4D    28.915000   11.013000   27.667000 C     1 CHL    -0.1001 ****
 39 CMD    31.717000   13.357000   27.041000 C     1 CHL    -0.1374 ****
 40 CAD    28.241000   13.230000   27.387000 C     1 CHL     0.3849 ****
 41 OBD    28.195000   14.407000   27.203000 O     1 CHL    -0.4838 ****
 42 CBD    26.967000   12.352000   27.618000 C     1 CHL    -0.0803 ****
 43 CGD    26.181000   12.835000   28.819000 C     1 CHL     0.5350 ****
 44 O1D    24.995000   12.930000   28.845000 O     1 CHL    -0.5165 ****
 45 O2D    26.958000   13.100000   29.852000 O     1 CHL    -0.2680 ****
 46 CED    26.332000   13.566000   31.035000 C     1 CHL    -0.0225 ****
 47 C1     20.476000    9.957000   24.132000 C     1 CHL     0.0248 ****
 48 C2     20.316000    8.620000   23.473000 C     1 CHL    -0.2783 ****
 49 C3     19.204000    7.912000   23.334000 C     1 CHL     0.0329 ****
 50 C4     17.836000    8.330000   23.818000 C     1 CHL    -0.0245 ****
 51 C5     19.256000    6.570000   22.614000 C     1 CHL    -0.0271 ****
 52 C6     19.846000    5.418000   23.445000 C     1 CHL     0.0166 ****
 53 C7     19.041000    5.065000   24.699000 C     1 CHL    -0.0918 ****
 54 C8     19.512000    3.803000   25.443000 C     1 CHL     0.0234 ****
 55 C9     20.931000    3.966000   26.002000 C     1 CHL    -0.1970 ****
 56 C10    18.498000    3.441000   26.541000 C     1 CHL    -0.0579 ****
 57 C11    18.723000    2.090000   27.228000 C     1 CHL     0.0208 ****
 58 C12    17.600000    1.747000   28.212000 C     1 CHL    -0.0593 ****
 59 C13    17.691000    0.354000   28.861000 C     1 CHL     0.1094 ****
 60 C14    18.926000    0.218000   29.760000 C     1 CHL    -0.1470 ****
 61 C15    16.389000    0.064000   29.629000 C     1 CHL    -0.0832 ****
 62 C16    16.249000   -1.326000   30.266000 C     1 CHL    -0.0105 ****
 63 C17    16.356000   -2.526000   29.314000 C     1 CHL    -0.0460 ****
 64 C18    15.344000   -2.584000   28.157000 C     1 CHL     0.2510 ****
 65 C19    15.645000   -3.787000   27.258000 C     1 CHL    -0.1938 ****
 66 C20    13.893000   -2.634000   28.647000 C     1 CHL    -0.1938 ****
 67 HHB    25.997000    5.617000   28.812000 H     1 CHL     0.1352 ****
 68 HHC    32.192000    4.591000   28.170000 H     1 CHL     0.1228 ****
 69 HHD    33.133000   10.864000   27.258000 H     1 CHL     0.1767 ****
 70 H2A    24.856000   10.317000   28.647000 H     1 CHL     0.0995 ****
 71 H3A    24.471000    7.552000   28.070000 H     1 CHL     0.0594 ****
 72 1HMA   25.511000    8.759000   30.675000 1     1 CHL     0.0340 ****
 73 2HMA   24.785000    7.169000   30.509000 2     1 CHL     0.0340 ****
 74 3HMA   23.819000    8.610000   30.225000 3     1 CHL     0.0340 ****
 75 1HAA   25.023000    8.857000   25.984000 1     1 CHL     0.0419 ****
 76 2HAA   25.050000   10.585000   26.114000 2     1 CHL     0.0419 ****
 77 1HBA   22.827000   10.599000   27.207000 1     1 CHL     0.0466 ****
 78 2HBA   22.743000    8.866000   27.140000 2     1 CHL     0.0466 ****
 79 1HMB   26.435000    3.204000   28.146000 1     1 CHL     0.0572 ****
 80 2HMB   26.695000    3.388000   29.869000 2     1 CHL     0.0572 ****
 81 3HMB   27.573000    2.160000   28.972000 3     1 CHL     0.0572 ****
 82 HAB    30.009000    1.980000   29.362000 H     1 CHL     0.1380 ****
 83 1HBB   31.579000    1.186000   27.739000 1     1 CHL     0.1550 ****
 84 2HBB   31.421000    2.737000   26.775000 2     1 CHL     0.1550 ****
 85 HMC    34.286000    4.842000   27.882000 H     1 CHL     0.0203 ****
 86 1HAC   35.005000    9.899000   26.799000 1     1 CHL     0.0183 ****
 87 2HAC   35.806000    8.352000   26.753000 2     1 CHL     0.0183 ****
 88 1HBC   35.240000    9.918000   29.314000 1     1 CHL     0.0187 ****
 89 2HBC   36.795000    9.808000   28.500000 2     1 CHL     0.0187 ****
 90 3HBC   36.080000    8.374000   29.216000 3     1 CHL     0.0187 ****
 91 1HMD   31.184000   14.294000   26.951000 1     1 CHL     0.0586 ****
 92 2HMD   32.437000   13.448000   27.848000 2     1 CHL     0.0586 ****
 93 3HMD   32.269000   13.187000   26.122000 3     1 CHL     0.0586 ****
 94 HBD    26.320000   12.469000   26.758000 H     1 CHL     0.1254 ****
 95 1HED   27.129000   13.746000   31.739000 1     1 CHL     0.0820 ****
 96 2HED   25.650000   12.821000   31.421000 2     1 CHL     0.0820 ****
 97 3HED   25.789000   14.480000   30.838000 3     1 CHL     0.0820 ****
 98 1H1    19.537000   10.393000   24.429000 1     1 CHL     0.0982 ****
 99 2H1    20.986000   10.644000   23.470000 2     1 CHL     0.0982 ****
100 H2     21.230000    8.222000   23.063000 H     1 CHL     0.1527 ****
101 1H4    17.845000    9.218000   24.434000 1     1 CHL     0.0259 ****
102 2H4    17.378000    7.531000   24.393000 2     1 CHL     0.0259 ****
103 3H4    17.184000    8.518000   22.968000 3     1 CHL     0.0259 ****
104 1H5    19.853000    6.677000   21.713000 1     1 CHL     0.0174 ****
105 2H5    18.255000    6.297000   22.286000 2     1 CHL     0.0174 ****
106 1H6    20.865000    5.678000   23.713000 1     1 CHL     0.0089 ****
107 2H6    19.907000    4.540000   22.805000 2     1 CHL     0.0089 ****
108 1H7    19.054000    5.906000   25.390000 1     1 CHL     0.0438 ****
109 2H7    18.001000    4.920000   24.410000 2     1 CHL     0.0438 ****
110 H8     19.528000    2.982000   24.724000 H     1 CHL     0.0405 ****
111 1H9    21.272000    3.064000   26.497000 1     1 CHL     0.0519 ****
112 2H9    21.647000    4.189000   25.220000 2     1 CHL     0.0519 ****
113 3H9    20.967000    4.777000   26.727000 3     1 CHL     0.0519 ****
114 1H10   17.503000    3.437000   26.099000 1     1 CHL     0.0143 ****
115 2H10   18.490000    4.230000   27.293000 2     1 CHL     0.0143 ****
116 1H11   18.787000    1.309000   26.471000 1     1 CHL     0.0020 ****
117 2H11   19.676000    2.096000   27.746000 2     1 CHL     0.0020 ****
118 1H12   16.651000    1.816000   27.685000 1     1 CHL     0.0127 ****
119 2H12   17.565000    2.503000   28.997000 2     1 CHL     0.0127 ****
120 H13    17.783000   -0.373000   28.055000 H     1 CHL     0.0019 ****
121 1H14   19.006000   -0.777000   30.183000 1     1 CHL     0.0328 ****
122 2H14   19.843000    0.405000   29.213000 2     1 CHL     0.0328 ****
123 3H14   18.881000    0.926000   30.586000 3     1 CHL     0.0328 ****
124 1H15   15.551000    0.230000   28.957000 1     1 CHL     0.0163 ****
125 2H15   16.285000    0.807000   30.420000 2     1 CHL     0.0163 ****
126 1H16   17.000000   -1.448000   31.043000 1     1 CHL     0.0112 ****
127 2H16   15.294000   -1.360000   30.784000 2     1 CHL     0.0112 ****
128 1H17   16.251000   -3.435000   29.905000 1     1 CHL     0.0006 ****
129 2H17   17.359000   -2.561000   28.894000 2     1 CHL     0.0006 ****
130 H18    15.460000   -1.688000   27.550000 H     1 CHL    -0.0228 ****
131 1H19   16.659000   -3.747000   26.870000 1     1 CHL     0.0345 ****
132 2H19   15.538000   -4.720000   27.806000 2     1 CHL     0.0345 ****
133 3H19   14.967000   -3.823000   26.410000 3     1 CHL     0.0345 ****
134 1H20   13.620000   -1.747000   29.208000 1     1 CHL     0.0345 ****
135 2H20   13.730000   -3.497000   29.289000 2     1 CHL     0.0345 ****
136 3H20   13.206000   -2.714000   27.809000 3     1 CHL     0.0345 ****
@<TRIPOS>BOND
    1     1     6 1
    2     1    17 1
    3     1    25 1
    4     1    34 1
    5     2     7 1
    6     2    38 1
    7     2    42 1
    8     3    10 1
    9     3    18 1
   10     3    67 1
   11     4    21 1
   12     4    26 1
   13     4    68 1
   14     5    29 1
   15     5    35 1
   16     5    69 1
   17     6     7 1
   18     6    10 1
   19     7     8 1
   20     8     9 1
   21     8    12 1
   22     8    70 1
   23     9    10 1
   24     9    11 1
   25     9    71 1
   26    11    72 1
   27    11    73 1
   28    11    74 1
   29    12    13 1
   30    12    75 1
   31    12    76 1
   32    13    14 1
   33    13    77 1
   34    13    78 1
   35    14    15 1
   36    14    16 1
   37    16    47 1
   38    17    18 1
   39    17    21 1
   40    18    19 1
   41    19    20 1
   42    19    22 1
   43    20    21 1
   44    20    23 1
   45    22    79 1
   46    22    80 1
   47    22    81 1
   48    23    24 1
   49    23    82 1
   50    24    83 1
   51    24    84 1
   52    25    26 1
   53    25    29 1
   54    26    27 1
   55    27    28 1
   56    27    30 1
   57    28    29 1
   58    28    32 1
   59    30    31 1
   60    30    85 1
   61    32    33 1
   62    32    86 1
   63    32    87 1
   64    33    88 1
   65    33    89 1
   66    33    90 1
   67    34    35 1
   68    34    38 1
   69    35    36 1
   70    36    37 1
   71    36    39 1
   72    37    38 1
   73    37    40 1
   74    39    91 1
   75    39    92 1
   76    39    93 1
   77    40    41 1
   78    40    42 1
   79    42    43 1
   80    42    94 1
   81    43    44 1
   82    43    45 1
   83    45    46 1
   84    46    95 1
   85    46    96 1
   86    46    97 1
   87    47    48 1
   88    47    98 1
   89    47    99 1
   90    48    49 1
   91    48   100 1
   92    49    50 1
   93    49    51 1
   94    50   101 1
   95    50   102 1
   96    50   103 1
   97    51    52 1
   98    51   104 1
   99    51   105 1
  100    52    53 1
  101    52   106 1
  102    52   107 1
  103    53    54 1
  104    53   108 1
  105    53   109 1
  106    54    55 1
  107    54    56 1
  108    54   110 1
  109    55   111 1
  110    55   112 1
  111    55   113 1
  112    56    57 1
  113    56   114 1
  114    56   115 1
  115    57    58 1
  116    57   116 1
  117    57   117 1
  118    58    59 1
  119    58   118 1
  120    58   119 1
  121    59    60 1
  122    59    61 1
  123    59   120 1
  124    60   121 1
  125    60   122 1
  126    60   123 1
  127    61    62 1
  128    61   124 1
  129    61   125 1
  130    62    63 1
  131    62   126 1
  132    62   127 1
  133    63    64 1
  134    63   128 1
  135    63   129 1
  136    64    65 1
  137    64    66 1
  138    64   130 1
  139    65   131 1
  140    65   132 1
  141    65   133 1
  142    66   134 1
  143    66   135 1
  144    66   136 1
@<TRIPOS>SUBSTRUCTURE
      1  CHL              1 ****               0 ****  **** 
