@<TRIPOS>MOLECULE
CLA
  137   145     1     0     1 
SMALL
USER_CHARGES
@<TRIPOS>ATOM
  1 MG     -0.315000    5.689000    0.855000 M     1 CLA     0.8950 ****
  2 CHA    -0.791000    4.253000   -2.256000 C     1 CLA    -0.1238 ****
  3 CHB    -0.330000    2.582000    2.252000 C     1 CLA    -0.2919 ****
  4 CHC     0.190000    7.128000    3.894000 C     1 CLA    -0.0904 ****
  5 CHD    -0.443000    8.841000   -0.621000 C     1 CLA    -0.0520 ****
  6 NA     -0.511000    3.694000    0.075000 N     1 CLA    -0.2255 ****
  7 C1A    -0.668000    3.324000   -1.242000 C     1 CLA    -0.0151 ****
  8 C2A    -0.662000    1.809000   -1.392000 C     1 CLA     0.0986 ****
  9 C3A    -0.821000    1.331000    0.076000 C     1 CLA     0.1668 ****
 10 C4A    -0.521000    2.597000    0.875000 C     1 CLA     0.0018 ****
 11 CMA    -2.227000    0.787000    0.386000 C     1 CLA    -0.2307 ****
 12 CAA     0.635000    1.305000   -2.066000 C     1 CLA    -0.0559 ****
 13 CBA     0.559000   -0.179000   -2.433000 C     1 CLA    -0.1350 ****
 14 CGA     1.824000   -0.681000   -3.106000 C     1 CLA     0.8270 ****
 15 O1A     2.711000    0.019000   -3.545000 O     1 CLA    -0.6108 ****
 16 O2A     1.831000   -2.030000   -3.167000 O     1 CLA    -0.4372 ****
 17 NB     -0.059000    4.976000    2.740000 N     1 CLA    -0.2957 ****
 18 C1B    -0.101000    3.669000    3.121000 C     1 CLA     0.0547 ****
 19 C2B     0.120000    3.563000    4.551000 C     1 CLA     0.0885 ****
 20 C3B     0.323000    4.846000    5.019000 C     1 CLA     0.0350 ****
 21 C4B     0.178000    5.737000    3.868000 C     1 CLA    -0.0209 ****
 22 CMB     0.161000    2.278000    5.321000 C     1 CLA    -0.1808 ****
 23 CAB     0.622000    5.215000    6.402000 C     1 CLA    -0.1485 ****
 24 CBB     1.436000    6.198000    6.815000 C     1 CLA    -0.3952 ****
 25 NC     -0.147000    7.647000    1.515000 N     1 CLA    -0.3092 ****
 26 C1C     0.040000    8.024000    2.813000 C     1 CLA    -0.0056 ****
 27 C2C     0.071000    9.470000    2.915000 C     1 CLA     0.0537 ****
 28 C3C    -0.101000    9.957000    1.636000 C     1 CLA    -0.0899 ****
 29 C4C    -0.238000    8.801000    0.768000 C     1 CLA    -0.0444 ****
 30 CMC     0.264000   10.243000    4.186000 C     1 CLA    -0.1340 ****
 31 CAC    -0.107000   11.393000    1.188000 C     1 CLA    -0.0126 ****
 32 CBC     1.270000   11.890000    0.708000 C     1 CLA    -0.0377 ****
 33 ND     -0.572000    6.434000   -1.003000 N     1 CLA    -0.2916 ****
 34 C1D    -0.596000    7.745000   -1.476000 C     1 CLA    -0.0473 ****
 35 C2D    -0.791000    7.752000   -2.914000 C     1 CLA     0.0589 ****
 36 C3D    -0.881000    6.411000   -3.268000 C     1 CLA    -0.0359 ****
 37 C4D    -0.744000    5.654000   -2.073000 C     1 CLA    -0.0460 ****
 38 CMD    -0.873000    8.949000   -3.811000 C     1 CLA    -0.1411 ****
 39 CAD    -1.045000    5.486000   -4.387000 C     1 CLA     0.3988 ****
 40 OBD    -1.177000    5.702000   -5.577000 O     1 CLA    -0.4946 ****
 41 CBD    -0.998000    4.031000   -3.763000 C     1 CLA    -0.0539 ****
 42 CGD    -2.258000    3.236000   -4.075000 C     1 CLA     0.6553 ****
 43 O1D    -2.277000    2.066000   -4.399000 O     1 CLA    -0.5582 ****
 44 O2D    -3.367000    3.982000   -3.905000 O     1 CLA    -0.3576 ****
 45 CED    -4.611000    3.312000   -4.165000 C     1 CLA     0.0054 ****
 46 C1      2.970000   -2.626000   -3.848000 C     1 CLA     0.0230 ****
 47 C2      2.813000   -4.110000   -3.756000 C     1 CLA    -0.3251 ****
 48 C3      3.718000   -5.009000   -3.338000 C     1 CLA     0.0312 ****
 49 C4      5.115000   -4.672000   -2.876000 C     1 CLA    -0.0533 ****
 50 C5      3.363000   -6.485000   -3.321000 C     1 CLA    -0.0704 ****
 51 C6      3.134000   -7.053000   -1.904000 C     1 CLA     0.0439 ****
 52 C7      2.752000   -8.540000   -1.922000 C     1 CLA    -0.1500 ****
 53 C8      2.395000   -9.144000   -0.547000 C     1 CLA     0.0642 ****
 54 C9      3.600000   -9.148000    0.408000 C     1 CLA    -0.2593 ****
 55 C10     1.799000  -10.556000   -0.727000 C     1 CLA    -0.0719 ****
 56 C11     1.192000  -11.179000    0.539000 C     1 CLA     0.0145 ****
 57 C12     0.528000  -12.538000    0.273000 C     1 CLA    -0.1121 ****
 58 C13    -0.191000  -13.170000    1.484000 C     1 CLA     0.0892 ****
 59 C14     0.791000  -13.527000    2.612000 C     1 CLA    -0.2391 ****
 60 C15    -1.017000  -14.393000    1.031000 C     1 CLA    -0.1022 ****
 61 C16    -1.951000  -14.987000    2.096000 C     1 CLA     0.0239 ****
 62 C17    -2.825000  -16.127000    1.552000 C     1 CLA    -0.1057 ****
 63 C18    -3.855000  -16.699000    2.546000 C     1 CLA     0.2068 ****
 64 C19    -3.195000  -17.351000    3.771000 C     1 CLA    -0.2801 ****
 65 C20    -4.786000  -17.698000    1.842000 C     1 CLA    -0.2801 ****
 66 HHB    -0.363000    1.602000    2.719000 H     1 CLA     0.1383 ****
 67 HHC     0.315000    7.581000    4.871000 H     1 CLA     0.1368 ****
 68 HHD    -0.489000    9.825000   -1.078000 H     1 CLA     0.1743 ****
 69 H2A    -1.509000    1.484000   -2.006000 H     1 CLA     0.0831 ****
 70 H3A    -0.086000    0.553000    0.318000 H     1 CLA     0.0411 ****
 71 1HMA   -2.326000    0.520000    1.444000 1     1 CLA     0.0583 ****
 72 2HMA   -2.435000   -0.107000   -0.213000 2     1 CLA     0.0583 ****
 73 3HMA   -2.994000    1.536000    0.155000 3     1 CLA     0.0583 ****
 74 1HAA    0.833000    1.875000   -2.977000 1     1 CLA     0.0287 ****
 75 2HAA    1.489000    1.487000   -1.402000 2     1 CLA     0.0287 ****
 76 1HBA    0.359000   -0.814000   -1.561000 1     1 CLA     0.0294 ****
 77 2HBA   -0.274000   -0.350000   -3.129000 2     1 CLA     0.0294 ****
 78 1HMB    0.283000    2.455000    6.393000 1     1 CLA     0.0636 ****
 79 2HMB    0.996000    1.641000    4.999000 2     1 CLA     0.0636 ****
 80 3HMB   -0.759000    1.695000    5.182000 3     1 CLA     0.0636 ****
 81 HAB     0.152000    4.594000    7.164000 H     1 CLA     0.1552 ****
 82 1HBB    1.593000    6.384000    7.873000 1     1 CLA     0.1830 ****
 83 2HBB    1.989000    6.825000    6.122000 2     1 CLA     0.1830 ****
 84 1HMC    1.270000   10.098000    4.602000 1     1 CLA     0.0521 ****
 85 2HMC    0.131000   11.317000    4.026000 2     1 CLA     0.0521 ****
 86 3HMC   -0.450000    9.935000    4.960000 3     1 CLA     0.0521 ****
 87 1HAC   -0.450000   12.031000    2.012000 1     1 CLA     0.0293 ****
 88 2HAC   -0.840000   11.528000    0.383000 2     1 CLA     0.0293 ****
 89 1HBC    1.634000   11.291000   -0.133000 1     1 CLA     0.0163 ****
 90 2HBC    2.013000   11.819000    1.511000 2     1 CLA     0.0163 ****
 91 3HBC    1.217000   12.937000    0.385000 3     1 CLA     0.0163 ****
 92 1HMD    0.036000    9.561000   -3.752000 1     1 CLA     0.0643 ****
 93 2HMD   -1.005000    8.633000   -4.849000 2     1 CLA     0.0643 ****
 94 3HMD   -1.717000    9.598000   -3.542000 3     1 CLA     0.0643 ****
 95 HBD    -0.171000    3.484000   -4.229000 H     1 CLA     0.1077 ****
 96 1HED   -4.642000    2.951000   -5.196000 1     1 CLA     0.0793 ****
 97 2HED   -4.740000    2.464000   -3.486000 2     1 CLA     0.0793 ****
 98 3HED   -5.386000    4.060000   -3.996000 3     1 CLA     0.0793 ****
 99 1H1     2.956000   -2.277000   -4.888000 1     1 CLA     0.1204 ****
100 2H1     3.888000   -2.249000   -3.392000 2     1 CLA     0.1204 ****
101 H2      1.840000   -4.472000   -4.090000 H     1 CLA     0.1809 ****
102 1H4     5.320000   -5.107000   -1.890000 1     1 CLA     0.0370 ****
103 2H4     5.857000   -5.099000   -3.564000 2     1 CLA     0.0370 ****
104 3H4     5.304000   -3.598000   -2.812000 3     1 CLA     0.0370 ****
105 1H5     4.166000   -7.061000   -3.806000 1     1 CLA     0.0332 ****
106 2H5     2.457000   -6.650000   -3.917000 2     1 CLA     0.0332 ****
107 1H6     2.337000   -6.474000   -1.418000 1     1 CLA     0.0156 ****
108 2H6     4.037000   -6.905000   -1.299000 2     1 CLA     0.0156 ****
109 1H7     3.572000   -9.122000   -2.370000 1     1 CLA     0.0444 ****
110 2H7     1.889000   -8.668000   -2.592000 2     1 CLA     0.0444 ****
111 H8      1.612000   -8.509000   -0.102000 H     1 CLA     0.0293 ****
112 1H9     3.336000   -9.549000    1.392000 1     1 CLA     0.0695 ****
113 2H9     4.413000   -9.766000    0.004000 2     1 CLA     0.0695 ****
114 3H9     3.996000   -8.140000    0.568000 3     1 CLA     0.0695 ****
115 1H10    2.578000  -11.226000   -1.125000 1     1 CLA     0.0241 ****
116 2H10    1.019000  -10.509000   -1.500000 2     1 CLA     0.0241 ****
117 1H11    1.968000  -11.289000    1.306000 1     1 CLA     0.0066 ****
118 2H11    0.443000  -10.488000    0.956000 2     1 CLA     0.0066 ****
119 1H12   -0.202000  -12.415000   -0.540000 1     1 CLA     0.0325 ****
120 2H12    1.284000  -13.245000   -0.105000 2     1 CLA     0.0325 ****
121 H13    -0.899000  -12.421000    1.875000 H     1 CLA     0.0197 ****
122 1H14    0.274000  -13.931000    3.488000 1     1 CLA     0.0636 ****
123 2H14    1.359000  -12.653000    2.948000 2     1 CLA     0.0636 ****
124 3H14    1.513000  -14.283000    2.273000 3     1 CLA     0.0636 ****
125 1H15   -0.331000  -15.176000    0.671000 1     1 CLA     0.0291 ****
126 2H15   -1.623000  -14.100000    0.162000 2     1 CLA     0.0291 ****
127 1H16   -1.362000  -15.350000    2.946000 1     1 CLA     0.0029 ****
128 2H16   -2.601000  -14.190000    2.489000 2     1 CLA     0.0029 ****
129 1H17   -3.363000  -15.764000    0.664000 1     1 CLA     0.0276 ****
130 2H17   -2.179000  -16.946000    1.199000 2     1 CLA     0.0276 ****
131 H18    -4.473000  -15.860000    2.904000 H     1 CLA    -0.0039 ****
132 1H19   -3.951000  -17.765000    4.449000 1     1 CLA     0.0656 ****
133 2H19   -2.537000  -18.176000    3.466000 2     1 CLA     0.0656 ****
134 3H19   -2.593000  -16.639000    4.344000 3     1 CLA     0.0656 ****
135 1H20   -5.551000  -18.082000    2.527000 1     1 CLA     0.0656 ****
136 2H20   -4.220000  -18.558000    1.461000 2     1 CLA     0.0656 ****
137 3H20   -5.300000  -17.235000    0.991000 3     1 CLA     0.0656 ****
@<TRIPOS>BOND
    1     1    17 1
    2     1     6 1
    3     1    33 1
    4     1    25 1
    5     2     7 1
    6     2    37 1
    7     2    41 1
    8     3    10 1
    9     3    18 1
   10     3    66 1
   11     4    21 1
   12     4    26 1
   13     4    67 1
   14     5    29 1
   15     5    34 1
   16     5    68 1
   17     6     7 1
   18     6    10 1
   19     7     8 1
   20     8     9 1
   21     8    12 1
   22     8    69 1
   23     9    10 1
   24     9    11 1
   25     9    70 1
   26    11    71 1
   27    11    72 1
   28    11    73 1
   29    12    13 1
   30    12    74 1
   31    12    75 1
   32    13    14 1
   33    13    76 1
   34    13    77 1
   35    14    15 1
   36    14    16 1
   37    16    46 1
   38    17    18 1
   39    17    21 1
   40    18    19 1
   41    19    20 1
   42    19    22 1
   43    20    21 1
   44    20    23 1
   45    22    78 1
   46    22    79 1
   47    22    80 1
   48    23    24 1
   49    23    81 1
   50    24    82 1
   51    24    83 1
   52    25    26 1
   53    25    29 1
   54    26    27 1
   55    27    28 1
   56    27    30 1
   57    28    29 1
   58    28    31 1
   59    30    84 1
   60    30    85 1
   61    30    86 1
   62    31    32 1
   63    31    87 1
   64    31    88 1
   65    32    89 1
   66    32    90 1
   67    32    91 1
   68    33    34 1
   69    33    37 1
   70    34    35 1
   71    35    36 1
   72    35    38 1
   73    36    37 1
   74    36    39 1
   75    38    92 1
   76    38    93 1
   77    38    94 1
   78    39    40 1
   79    39    41 1
   80    41    42 1
   81    41    95 1
   82    42    43 1
   83    42    44 1
   84    44    45 1
   85    45    96 1
   86    45    97 1
   87    45    98 1
   88    46    47 1
   89    46    99 1
   90    46   100 1
   91    47    48 1
   92    47   101 1
   93    48    49 1
   94    48    50 1
   95    49   102 1
   96    49   103 1
   97    49   104 1
   98    50    51 1
   99    50   105 1
  100    50   106 1
  101    51    52 1
  102    51   107 1
  103    51   108 1
  104    52    53 1
  105    52   109 1
  106    52   110 1
  107    53    54 1
  108    53    55 1
  109    53   111 1
  110    54   112 1
  111    54   113 1
  112    54   114 1
  113    55    56 1
  114    55   115 1
  115    55   116 1
  116    56    57 1
  117    56   117 1
  118    56   118 1
  119    57    58 1
  120    57   119 1
  121    57   120 1
  122    58    59 1
  123    58    60 1
  124    58   121 1
  125    59   122 1
  126    59   123 1
  127    59   124 1
  128    60    61 1
  129    60   125 1
  130    60   126 1
  131    61    62 1
  132    61   127 1
  133    61   128 1
  134    62    63 1
  135    62   129 1
  136    62   130 1
  137    63    64 1
  138    63    65 1
  139    63   131 1
  140    64   132 1
  141    64   133 1
  142    64   134 1
  143    65   135 1
  144    65   136 1
  145    65   137 1
@<TRIPOS>SUBSTRUCTURE
      1  CLA              1 ****               0 ****  **** 
